topology_0_lconc_0_steps_1000000
  PyMOL2.5          3D                             0

 58 60  0  0  0  0  0  0  0  0999 V2000
    2.9602    2.0210    1.3172 C   0  0  0  0  0  0  0  0  0  0  0  0
    2.9367    3.4013    1.1617 N   0  0  0  0  0  0  0  0  0  0  0  0
    7.2086    2.0277    1.0604 O   0  0  0  0  0  0  0  0  0  0  0  0
    5.0148    2.7958    1.0134 C   0  0  0  0  0  0  0  0  0  0  0  0
    4.2076    1.5830    1.1045 N   0  0  0  0  0  0  0  0  0  0  0  0
    6.4550    2.9001    0.9722 C   0  0  0  0  0  0  0  0  0  0  0  0
    6.8865    4.2129    0.8390 N   0  0  0  0  0  0  0  0  0  0  0  0
    6.0158    5.2727    0.8511 C   0  0  0  0  0  0  0  0  0  0  0  0
    6.5963    6.4862    0.7634 N   0  0  0  0  0  0  0  0  0  0  0  0
    4.2035    3.8842    1.0142 C   0  0  0  0  0  0  0  0  0  0  0  0
    4.6930    5.1464    0.8816 N   0  0  0  0  0  0  0  0  0  0  0  0
    2.0594    1.4302    1.4182 H   0  0  0  0  0  0  0  0  0  0  0  0
    7.8710    4.4387    0.7618 H   0  0  0  0  0  0  0  0  0  0  0  0
    7.3397    6.6593    0.0989 H   0  0  0  0  0  0  0  0  0  0  0  0
    6.1612    7.2552    1.2569 H   0  0  0  0  0  0  0  0  0  0  0  0
    2.1992    4.0786    1.0299 H   0  0  0  0  0  0  0  0  0  0  0  0
    2.9418    9.0948    1.3061 C   0  0  0  0  0  0  0  0  0  0  0  0
    2.9030   10.4071    1.1601 N   0  0  0  0  0  0  0  0  0  0  0  0
    7.1674    8.9977    1.1883 O   0  0  0  0  0  0  0  0  0  0  0  0
    4.9581    9.7973    1.1194 C   0  0  0  0  0  0  0  0  0  0  0  0
    4.2119    8.5952    1.2385 N   0  0  0  0  0  0  0  0  0  0  0  0
    6.3910    9.9304    1.0526 C   0  0  0  0  0  0  0  0  0  0  0  0
    6.8595   11.2334    0.9208 N   0  0  0  0  0  0  0  0  0  0  0  0
    6.0129   12.2931    0.8098 C   0  0  0  0  0  0  0  0  0  0  0  0
    6.5307   13.5076    0.6402 N   0  0  0  0  0  0  0  0  0  0  0  0
    4.1457   10.8853    1.0111 C   0  0  0  0  0  0  0  0  0  0  0  0
    4.6549   12.2105    0.9256 N   0  0  0  0  0  0  0  0  0  0  0  0
    2.0238    8.5221    1.3117 H   0  0  0  0  0  0  0  0  0  0  0  0
    7.8628   11.3455    1.0043 H   0  0  0  0  0  0  0  0  0  0  0  0
    7.2184   13.7092   -0.0743 H   0  0  0  0  0  0  0  0  0  0  0  0
    6.3012   14.2583    1.2789 H   0  0  0  0  0  0  0  0  0  0  0  0
    2.0967   11.0086    1.0689 H   0  0  0  0  0  0  0  0  0  0  0  0
   11.8832    3.3360    1.0518 C   0  0  0  0  0  0  0  0  0  0  0  0
   11.7387    5.6631    0.9290 N   0  0  0  0  0  0  0  0  0  0  0  0
    9.7120    6.5885    0.8825 O   0  0  0  0  0  0  0  0  0  0  0  0
   12.5019    4.5174    1.0374 C   0  0  0  0  0  0  0  0  0  0  0  0
    9.8483    4.3887    1.0088 N   0  0  0  0  0  0  0  0  0  0  0  0
   10.4284    5.6385    1.0122 C   0  0  0  0  0  0  0  0  0  0  0  0
    9.8116    2.1609    1.1855 N   0  0  0  0  0  0  0  0  0  0  0  0
   10.4996    3.2869    1.1134 C   0  0  0  0  0  0  0  0  0  0  0  0
   10.0943    1.2702    0.7972 H   0  0  0  0  0  0  0  0  0  0  0  0
    8.8185    2.1730    1.3799 H   0  0  0  0  0  0  0  0  0  0  0  0
   13.5778    4.6280    1.0676 H   0  0  0  0  0  0  0  0  0  0  0  0
   12.4423    2.4080    1.0156 H   0  0  0  0  0  0  0  0  0  0  0  0
   12.2534    6.5323    0.8527 H   0  0  0  0  0  0  0  0  0  0  0  0
   11.8800   10.2371    0.9229 C   0  0  0  0  0  0  0  0  0  0  0  0
   11.8181   12.6238    0.9178 N   0  0  0  0  0  0  0  0  0  0  0  0
    9.7640   13.5773    0.8132 O   0  0  0  0  0  0  0  0  0  0  0  0
   12.5295   11.4437    0.9645 C   0  0  0  0  0  0  0  0  0  0  0  0
    9.7876   11.4585    1.0157 N   0  0  0  0  0  0  0  0  0  0  0  0
   10.4391   12.6027    0.8848 C   0  0  0  0  0  0  0  0  0  0  0  0
    9.8075    9.1528    1.2274 N   0  0  0  0  0  0  0  0  0  0  0  0
   10.4776   10.3168    1.1210 C   0  0  0  0  0  0  0  0  0  0  0  0
   10.1592    8.2588    0.9093 H   0  0  0  0  0  0  0  0  0  0  0  0
    8.8000    9.1704    1.3209 H   0  0  0  0  0  0  0  0  0  0  0  0
   13.6025   11.5647    0.8958 H   0  0  0  0  0  0  0  0  0  0  0  0
   12.4545    9.3179    0.9374 H   0  0  0  0  0  0  0  0  0  0  0  0
   12.2668   13.5302    0.8607 H   0  0  0  0  0  0  0  0  0  0  0  0
  1  5  4  0  0  0  0
  1 12  1  0  0  0  0
  1  2  4  0  0  0  0
  2 10  4  0  0  0  0
  2 16  1  0  0  0  0
  4  6  4  0  0  0  0
  4 10  4  0  0  0  0
  4  5  4  0  0  0  0
  3  6  2  0  0  0  0
  6  7  4  0  0  0  0
  7  8  4  0  0  0  0
  7 13  1  0  0  0  0
  8  9  1  0  0  0  0
  8 11  4  0  0  0  0
  9 14  1  0  0  0  0
  9 15  1  0  0  0  0
 10 11  4  0  0  0  0
 17 21  4  0  0  0  0
 17 28  1  0  0  0  0
 17 18  4  0  0  0  0
 18 26  4  0  0  0  0
 18 32  1  0  0  0  0
 20 22  4  0  0  0  0
 20 26  4  0  0  0  0
 20 21  4  0  0  0  0
 19 22  2  0  0  0  0
 22 23  4  0  0  0  0
 23 24  4  0  0  0  0
 23 29  1  0  0  0  0
 24 25  1  0  0  0  0
 24 27  4  0  0  0  0
 25 30  1  0  0  0  0
 25 31  1  0  0  0  0
 26 27  4  0  0  0  0
 33 36  4  0  0  0  0
 33 40  4  0  0  0  0
 33 44  1  0  0  0  0
 34 38  4  0  0  0  0
 34 45  1  0  0  0  0
 34 36  4  0  0  0  0
 36 43  1  0  0  0  0
 37 40  4  0  0  0  0
 35 38  2  0  0  0  0
 37 38  4  0  0  0  0
 39 41  1  0  0  0  0
 39 42  1  0  0  0  0
 39 40  1  0  0  0  0
 46 49  4  0  0  0  0
 46 53  4  0  0  0  0
 46 57  1  0  0  0  0
 47 51  4  0  0  0  0
 47 58  1  0  0  0  0
 47 49  4  0  0  0  0
 49 56  1  0  0  0  0
 50 53  4  0  0  0  0
 48 51  2  0  0  0  0
 50 51  4  0  0  0  0
 52 54  1  0  0  0  0
 52 55  1  0  0  0  0
 52 53  1  0  0  0  0
M  END
>  <pdb_header>
REMARK   1 CREATED WITH OPENMM 7.7, 2023-07-11
CRYST1   14.000   14.000   10.000  90.00  90.00  90.00 P 1           1 


$$$$
